/*--------------------------------*- C++ -*----------------------------------*\
| =========                 |                                                 |
| \\      /  F ield         | OpenFOAM: The Open Source CFD Toolbox           |
|  \\    /   O peration     | Version:  plus-overset                          |
|   \\  /    A nd           | Web:      www.OpenFOAM.com                      |
|    \\/     M anipulation  |                                                 |
\*---------------------------------------------------------------------------*/
FoamFile
{
    version     2.0;
    format      ascii;
    class       volScalarField;
    object      zoneID;
}
// * * * * * * * * * * * * * * * * * * * * * * * * * * * * * * * * * * * * * //

dimensions      [0 0 0 0 0 0 0];

internalField   uniform 0;

boundaryField
{
    #includeEtc "caseDicts/setConstraintTypes"

    overset1
    {
        type            overset;
	value		uniform 0;
    }

    overset2
    {
        type            overset;
	value		uniform 0;
    }

    overset3
    {
        type            overset;
	value		uniform 0;
    }

    inlet
    {
        type            zeroGradient;
    }

    outlet
    {
        type            zeroGradient;
    }

    side
    {
        type            zeroGradient;
    }

    blades
    {
        type            zeroGradient;
    }

    ".*"
    {
        type            zeroGradient;
    }
}

// ************************************************************************* //
