/*--------------------------------*- C++ -*----------------------------------*\
| =========                 |                                                 |
| \\      /  F ield         | OpenFOAM: The Open Source CFD Toolbox           |
|  \\    /   O peration     | Version:  2.2.2                                 |
|   \\  /    A nd           | Web:      www.OpenFOAM.org                      |
|    \\/     M anipulation  |                                                 |
\*---------------------------------------------------------------------------*/
FoamFile
{
    version     2.0;
    format      ascii;
    class       dictionary;
    object      createPatchDict;
}
// * * * * * * * * * * * * * * * * * * * * * * * * * * * * * * * * * * * * * //

rotationcentre (0 0 0);

pointSync false;


patches
(
	{
        name overset1;
        patchInfo
        {
            type overset;
        }
        constructFrom patches;
        patches (rotor_inlet rotor_outlet rotor_side1 rotor_side2 rotor_side3 rotor_side4);
    }

    {
        name blades;
        patchInfo
        {
            type wall;
        }
        constructFrom patches;
        patches (foil tip);
    }
);

// ************************************************************************* //
