/*--------------------------------*- C++ -*----------------------------------*\
| =========                 |                                                 |
| \\      /  F ield         | OpenFOAM: The Open Source CFD Toolbox           |
|  \\    /   O peration     | Version:  2.2.2                                 |
|   \\  /    A nd           | Web:      www.OpenFOAM.org                      |
|    \\/     M anipulation  |                                                 |
\*---------------------------------------------------------------------------*/
FoamFile
{
    version     2.0;
    format      ascii;
    class       dictionary;
    location    "system";
    object      fvSolution;
}
// * * * * * * * * * * * * * * * * * * * * * * * * * * * * * * * * * * * * * //

solvers
{
    pcorr
    {
        solver          GAMG;
        tolerance       1e-5;
        relTol          0.;
        smoother        GaussSeidel;
        nPreSweeps      0;
        nPostSweeps     2;
        cacheAgglomeration true;
        nCellsInCoarsestLevel 1000;
        agglomerator    faceAreaPair;
        mergeLevels     1;
    }

    "(p|Phi)"
    {
        $pcorr;
        tolerance       1e-6;
        relTol          0.;
    }

    pFinal
    {
        $p;
        tolerance       1e-7;
        relTol          0.;
    }


    U
    {
        solver          smoothSolver;
        smoother        GaussSeidel;
        nSweeps         2;
        tolerance       1e-7;
        relTol          0.;
    }

    "(k|epsilon|omega|R|nuTilda)"
    {
        solver          smoothSolver;
        smoother        GaussSeidel;
        tolerance       1e-6;
        relTol          0.;
    }

    "(k|epsilon|omega|R|nuTilda)Final"
    {
        solver          PBiCG;
        preconditioner  DILU;
        tolerance       1e-7;
        relTol          0;
    }
}

SIMPLE
{
    nNonOrthogonalCorrectors 4;
    pRefCell        0;
    pRefValue       0;

    residualControl
    {
    }
}

potentialFlow
{
    nNonOrthogonalCorrectors 10;
    PhiRefCell        0;
    PhiRefValue       0;
}

relaxationFactors
{
    fields
    {
        p               0.3;
    }
    equations
    {
        U               0.7;
        k               0.7;
        epsilon         0.7;
        omega           0.7;
        R               0.7;
        nuTilda         0.7;
    }
}


// ************************************************************************* //
